4zjc_ligand
     RDKit          3D

 32 36  0  0  0  0  0  0  0  0999 V2000
   -9.8830   -1.0560  -53.9950 C   0  0  0  0  0  0  0  0  0  0  0  0
   -8.9270   -1.3980  -55.0790 C   0  0  0  0  0  0  0  0  0  0  0  0
   -8.9500   -1.1590  -56.3390 N   0  0  0  0  0  0  0  0  0  0  0  0
   -7.7850   -1.7290  -56.8710 N   0  0  0  0  0  0  0  0  0  0  0  0
   -7.1570   -2.2650  -55.8810 C   0  0  0  0  0  0  0  0  0  0  0  0
   -7.8180   -2.1000  -54.7000 O   0  0  0  0  0  0  0  0  0  0  0  0
   -5.8820   -2.9820  -55.8830 C   0  0  0  0  0  0  0  0  0  0  0  0
   -9.6920    0.3780  -53.4980 C   0  0  1  0  0  0  0  0  0  0  0  0
   -8.5120    1.8230  -55.1180 C   0  0  0  0  0  0  0  0  0  0  0  0
   -7.1980    1.4560  -54.5090 C   0  0  0  0  0  0  0  0  0  0  0  0
   -9.6550    1.3340  -54.6110 N   0  0  0  0  0  0  0  0  0  0  0  0
  -11.0150    1.7300  -54.9930 C   0  0  0  0  0  0  0  0  0  0  0  0
  -11.7850    1.6280  -53.6790 C   0  0  0  0  0  0  0  0  0  0  0  0
   -8.5080    2.5710  -56.0890 O   0  0  0  0  0  0  0  0  0  0  0  0
  -10.8650    0.8990  -52.6670 C   0  0  0  0  0  0  0  0  0  0  0  0
   -3.9830   -0.2270  -54.8840 C   0  0  0  0  0  0  0  0  0  0  0  0
   -5.1780    0.5530  -54.4430 C   0  0  0  0  0  0  0  0  0  0  0  0
   -6.2630    0.6690  -55.1560 N   0  0  0  0  0  0  0  0  0  0  0  0
   -6.8260    1.9450  -53.2800 C   0  0  0  0  0  0  0  0  0  0  0  0
   -5.2170    1.3940  -52.9200 S   0  0  0  0  0  0  0  0  0  0  0  0
   -7.5380    2.7930  -52.3010 C   0  0  0  0  0  0  0  0  0  0  0  0
   -8.1160    3.9880  -52.7310 C   0  0  0  0  0  0  0  0  0  0  0  0
   -8.7900    4.8090  -51.8450 C   0  0  0  0  0  0  0  0  0  0  0  0
   -8.9020    4.4560  -50.5190 C   0  0  0  0  0  0  0  0  0  0  0  0
   -8.3410    3.2780  -50.0610 C   0  0  0  0  0  0  0  0  0  0  0  0
   -7.6770    2.4770  -50.9580 C   0  0  0  0  0  0  0  0  0  0  0  0
   -7.1380    1.3240  -50.5020 F   0  0  0  0  0  0  0  0  0  0  0  0
   -5.1680   -3.1570  -57.0630 C   0  0  0  0  0  0  0  0  0  0  0  0
   -3.9540   -3.8220  -57.0560 C   0  0  0  0  0  0  0  0  0  0  0  0
   -3.4420   -4.3210  -55.8770 C   0  0  0  0  0  0  0  0  0  0  0  0
   -4.1430   -4.1570  -54.7010 C   0  0  0  0  0  0  0  0  0  0  0  0
   -5.3570   -3.4930  -54.7000 C   0  0  0  0  0  0  0  0  0  0  0  0
  1  2  1  0
  8  1  1  6
  2  3  2  0
  2  6  1  0
  3  4  1  0
  5  4  2  0
  6  5  1  0
  5  7  1  0
  7 28  2  0
  7 32  1  0
 11  8  1  0
  8 15  1  0
 10  9  1  0
  9 11  1  0
  9 14  2  0
 18 10  1  0
 10 19  2  0
 11 12  1  0
 12 13  1  0
 13 15  1  0
 17 16  1  0
 17 18  2  0
 17 20  1  0
 19 20  1  0
 19 21  1  0
 21 22  2  0
 21 26  1  0
 22 23  1  0
 23 24  2  0
 24 25  1  0
 25 26  2  0
 26 27  1  0
 28 29  1  0
 29 30  2  0
 30 31  1  0
 31 32  2  0
M  END
