3eyg_ligand
     RDKit          3D

 23 25  0  0  0  0  0  0  0  0999 V2000
   11.4000   14.0760  -15.3490 C   0  0  1  0  0  0  0  0  0  0  0  0
   11.1110   14.1980  -16.8320 C   0  0  0  0  0  0  0  0  0  0  0  0
   10.0430   11.9040  -16.9620 C   0  0  0  0  0  0  0  0  0  0  0  0
   10.5440   11.6320  -15.5380 C   0  0  0  0  0  0  0  0  0  0  0  0
   11.7130   12.5520  -15.1220 C   0  0  1  0  0  0  0  0  0  0  0  0
    9.9090   13.3800  -17.0700 N   0  0  0  0  0  0  0  0  0  0  0  0
    8.6640   15.1600  -17.5640 O   0  0  0  0  0  0  0  0  0  0  0  0
    8.7790   13.9460  -17.4370 C   0  0  0  0  0  0  0  0  0  0  0  0
    7.5860   13.0420  -17.6590 C   0  0  0  0  0  0  0  0  0  0  0  0
    6.4020   13.8860  -17.8860 C   0  0  0  0  0  0  0  0  0  0  0  0
    5.4400   14.5060  -18.0770 N   0  0  0  0  0  0  0  0  0  0  0  0
   13.0070   11.9550  -15.7290 C   0  0  0  0  0  0  0  0  0  0  0  0
   12.6080   14.8790  -14.9290 N   0  0  0  0  0  0  0  0  0  0  0  0
   13.6000   15.3730  -15.8880 C   0  0  0  0  0  0  0  0  0  0  0  0
   12.8720   15.1980  -13.6120 C   0  0  0  0  0  0  0  0  0  0  0  0
   12.0370   14.7960  -12.5530 C   0  0  0  0  0  0  0  0  0  0  0  0
   10.7790   14.0680  -12.4890 C   0  0  0  0  0  0  0  0  0  0  0  0
   10.5020   14.0170  -11.1370 C   0  0  0  0  0  0  0  0  0  0  0  0
   11.4780   14.6740  -10.4210 N   0  0  0  0  0  0  0  0  0  0  0  0
   12.4150   15.1380  -11.2680 C   0  0  0  0  0  0  0  0  0  0  0  0
   13.5300   15.8160  -10.9460 N   0  0  0  0  0  0  0  0  0  0  0  0
   14.3090   16.1740  -12.0020 C   0  0  0  0  0  0  0  0  0  0  0  0
   14.0160   15.9020  -13.3080 N   0  0  0  0  0  0  0  0  0  0  0  0
  2  1  1  0
  1  5  1  0
  1 13  1  6
  6  2  1  0
  3  4  1  0
  3  6  1  0
  4  5  1  0
  5 12  1  6
  6  8  1  0
  8  7  2  0
  8  9  1  0
  9 10  1  0
 10 11  3  0
 13 14  1  0
 13 15  1  0
 15 16  2  0
 15 23  1  0
 16 17  1  0
 16 20  1  0
 17 18  2  0
 18 19  1  0
 19 20  1  0
 20 21  2  0
 21 22  1  0
 22 23  2  0
M  END
