3fv1_ligand
     RDKit          3D

 21 22  0  0  0  0  0  0  0  0999 V2000
   -9.0150   11.3910   19.7050 C   0  0  0  0  0  0  0  0  0  0  0  0
   -9.9920   12.4710   19.8030 N   0  0  0  0  0  4  0  0  0  0  0  0
  -10.0650   13.2430   21.0470 C   0  0  2  0  0  0  0  0  0  0  0  0
  -11.2010   14.2510   20.9770 C   0  0  2  0  0  0  0  0  0  0  0  0
  -11.1390   14.9900   19.7440 O   0  0  0  0  0  0  0  0  0  0  0  0
  -11.1220   15.2350   22.1390 C   0  0  0  0  0  0  0  0  0  0  0  0
   -9.9040   15.9730   22.0770 O   0  0  0  0  0  0  0  0  0  0  0  0
   -8.7580   15.1170   22.2720 C   0  0  2  0  0  0  0  0  0  0  0  0
   -7.5280   15.8850   21.8370 C   0  0  0  0  0  0  0  0  0  0  0  0
   -8.7380   13.9400   21.3060 C   0  0  2  0  0  0  0  0  0  0  0  0
   -8.2900   14.5050   20.0750 O   0  0  0  0  0  0  0  0  0  0  0  0
   -7.4600   15.6540   20.3290 C   0  0  1  0  0  0  0  0  0  0  0  0
   -8.0510   16.8610   19.6090 C   0  0  0  0  0  0  0  0  0  0  0  0
   -9.2220   16.7820   19.1390 O   0  0  0  0  0  1  0  0  0  0  0  0
   -7.3530   17.8920   19.4920 O   0  0  0  0  0  0  0  0  0  0  0  0
   -6.0250   15.3570   19.9050 C   0  0  0  0  0  0  0  0  0  0  0  0
   -5.7980   15.2430   18.3960 C   0  0  1  0  0  0  0  0  0  0  0  0
   -4.3360   15.4470   18.1430 C   0  0  0  0  0  0  0  0  0  0  0  0
   -3.6970   14.5950   17.4910 O   0  0  0  0  0  1  0  0  0  0  0  0
   -3.8250   16.4790   18.6080 O   0  0  0  0  0  0  0  0  0  0  0  0
   -6.2230   13.9540   17.8620 N   0  0  0  0  0  4  0  0  0  0  0  0
  1  2  1  0
  3  2  1  6
  3  4  1  0
  3 10  1  0
  4  5  1  6
  4  6  1  0
  6  7  1  0
  7  8  1  0
  8  9  1  6
  8 10  1  0
  9 12  1  0
 10 11  1  6
 11 12  1  0
 12 13  1  0
 12 16  1  6
 13 14  1  0
 13 15  2  0
 16 17  1  0
 17 18  1  0
 17 21  1  1
 18 19  1  0
 18 20  2  0
M  CHG  4   2   1  14  -1  19  -1  21   1
M  END
