5lhg_ligand
     RDKit          3D

 34 38  0  0  0  0  0  0  0  0999 V2000
    8.1730  -52.2180  -39.3670 C   0  0  0  0  0  0  0  0  0  0  0  0
    7.8770  -51.9220  -41.7320 C   0  0  0  0  0  0  0  0  0  0  0  0
    8.9780  -51.0810  -41.7560 C   0  0  0  0  0  0  0  0  0  0  0  0
    5.5030  -56.3250  -37.1880 C   0  0  0  0  0  0  0  0  0  0  0  0
    9.6710  -50.8000  -40.5900 C   0  0  0  0  0  0  0  0  0  0  0  0
    9.4290  -50.4460  -43.0750 C   0  0  0  0  0  0  0  0  0  0  0  0
    8.9670  -48.1160  -42.9970 C   0  0  0  0  0  0  0  0  0  0  0  0
    6.2250  -55.5490  -36.1980 N   0  0  0  0  0  0  0  0  0  0  0  0
    6.0360  -55.6510  -34.8670 C   0  0  0  0  0  0  0  0  0  0  0  0
    5.1990  -56.4280  -34.0360 C   0  0  0  0  0  0  0  0  0  0  0  0
    5.3400  -56.2060  -32.6850 C   0  0  0  0  0  0  0  0  0  0  0  0
    6.5600  -54.9820  -32.5460 S   0  0  0  0  0  0  0  0  0  0  0  0
    6.8850  -54.7700  -34.2380 C   0  0  0  0  0  0  0  0  0  0  0  0
    7.6040  -54.1220  -35.2490 C   0  0  0  0  0  0  0  0  0  0  0  0
    7.1550  -54.6520  -36.4590 C   0  0  0  0  0  0  0  0  0  0  0  0
    7.6600  -54.2260  -37.8420 C   0  0  0  0  0  0  0  0  0  0  0  0
    7.9730  -55.0210  -38.6640 O   0  0  0  0  0  0  0  0  0  0  0  0
    7.7330  -52.7990  -38.1070 N   0  0  0  0  0  0  0  0  0  0  0  0
    7.4710  -52.4860  -40.5310 C   0  0  0  0  0  0  0  0  0  0  0  0
    9.2690  -51.3710  -39.3940 C   0  0  0  0  0  0  0  0  0  0  0  0
    9.8930  -49.1560  -42.7740 O   0  0  0  0  0  0  0  0  0  0  0  0
    7.6000  -48.3470  -42.9120 C   0  0  0  0  0  0  0  0  0  0  0  0
    6.7000  -47.3100  -43.1310 C   0  0  0  0  0  0  0  0  0  0  0  0
    7.1670  -46.0380  -43.4300 C   0  0  0  0  0  0  0  0  0  0  0  0
    8.5350  -45.8090  -43.5100 C   0  0  0  0  0  0  0  0  0  0  0  0
    9.4340  -46.8440  -43.2930 C   0  0  0  0  0  0  0  0  0  0  0  0
    6.2530  -44.9900  -43.6500 O   0  0  0  0  0  0  0  0  0  0  0  0
    6.7810  -44.0860  -44.5900 C   0  0  0  0  0  0  0  0  0  0  0  0
    5.9580  -44.0710  -45.7700 C   0  0  0  0  0  0  0  0  0  0  0  0
    6.4980  -43.0780  -46.8000 C   0  0  0  0  0  0  0  0  0  0  0  0
    6.7160  -41.7670  -46.2490 N   0  0  0  0  0  4  0  0  0  0  0  0
    7.4510  -41.7770  -45.0130 C   0  0  0  0  0  0  0  0  0  0  0  0
    6.8800  -42.7740  -44.0050 C   0  0  0  0  0  0  0  0  0  0  0  0
    7.2940  -41.0780  -47.0590 C   0  0  0  0  0  0  0  0  0  0  0  0
 18  1  1  0
  1 19  2  0
  1 20  1  0
  2  3  2  0
 19  2  1  0
  5  3  1  0
  3  6  1  0
  8  4  1  0
 20  5  2  0
  6 21  1  0
 21  7  1  0
  7 22  2  0
  7 26  1  0
  8  9  1  0
 15  8  1  0
  9 10  1  0
 13  9  2  0
 10 11  2  0
 12 11  1  0
 13 12  1  0
 14 13  1  0
 15 14  2  0
 16 15  1  0
 16 17  2  0
 16 18  1  0
 22 23  1  0
 23 24  2  0
 24 25  1  0
 24 27  1  0
 25 26  2  0
 27 28  1  0
 28 29  1  0
 28 33  1  0
 29 30  1  0
 30 31  1  0
 31 32  1  0
 31 34  1  0
 32 33  1  0
M  CHG  1  31   1
M  END
