3v3q_ligand
     RDKit          3D

 27 27  0  0  0  0  0  0  0  0999 V2000
  -11.1270   24.2780    5.5580 C   0  0  0  0  0  0  0  0  0  0  0  0
  -11.0360   25.4050    4.7230 C   0  0  0  0  0  0  0  0  0  0  0  0
  -11.1890   26.7030    5.2970 C   0  0  0  0  0  0  0  0  0  0  0  0
  -11.4170   26.8550    6.6590 C   0  0  0  0  0  0  0  0  0  0  0  0
  -11.5010   25.7630    7.4940 C   0  0  0  0  0  0  0  0  0  0  0  0
  -11.3660   24.4770    7.0100 C   0  0  0  0  0  0  0  0  0  0  0  0
  -11.0060   22.8700    5.1430 C   0  0  0  0  0  0  0  0  0  0  0  0
  -12.0770   22.0550    5.2260 C   0  0  0  0  0  0  0  0  0  0  0  0
  -13.2480   22.5660    5.6220 O   0  0  0  0  0  0  0  0  0  0  0  0
  -11.9920   20.6350    4.8820 O   0  0  0  0  0  0  0  0  0  0  0  0
  -11.3350   19.7210    5.7700 C   0  0  0  0  0  0  0  0  0  0  0  0
  -11.7940   19.7960    7.2200 C   0  0  0  0  0  0  0  0  0  0  0  0
  -11.5010   23.3560    8.0100 C   0  0  0  0  0  0  0  0  0  0  0  0
  -12.8570   23.1060    8.6350 C   0  0  0  0  0  0  0  0  0  0  0  0
  -13.1500   21.7060    9.1860 C   0  0  0  0  0  0  0  0  0  0  0  0
  -14.6460   21.4270    9.0110 C   0  0  0  0  0  0  0  0  0  0  0  0
  -15.5380   22.4770    9.6920 C   0  0  0  0  0  0  0  0  0  0  0  0
  -16.4590   23.2130    8.7090 C   0  0  0  0  0  0  0  0  0  0  0  0
  -17.2470   24.3370    9.3790 C   0  0  0  0  0  0  0  0  0  0  0  0
  -17.6020   25.4100    8.3720 C   0  0  0  0  0  0  0  0  0  0  0  0
  -10.5290   22.7060    8.3290 O   0  0  0  0  0  0  0  0  0  0  0  0
  -10.8040   25.2860    3.3790 O   0  0  0  0  0  0  0  0  0  0  0  0
  -11.0790   27.8450    4.5540 O   0  0  0  0  0  0  0  0  0  0  0  0
  -11.5640   28.0730    7.2190 O   0  0  0  0  0  0  0  0  0  0  0  0
  -11.6690   24.4320    2.6230 C   0  0  0  0  0  0  0  0  0  0  0  0
   -9.8830   28.5460    4.7450 C   0  0  0  0  0  0  0  0  0  0  0  0
  -11.0960   28.3040    8.5530 C   0  0  0  0  0  0  0  0  0  0  0  0
  1  2  2  0
  1  6  1  0
  1  7  1  0
  2  3  1  0
  2 22  1  0
  3  4  2  0
  3 23  1  0
  4  5  1  0
  4 24  1  0
  5  6  2  0
  6 13  1  0
  7  8  1  0
  8  9  2  0
  8 10  1  0
 10 11  1  0
 11 12  1  0
 13 14  1  0
 13 21  2  0
 14 15  1  0
 15 16  1  0
 16 17  1  0
 17 18  1  0
 18 19  1  0
 19 20  1  0
 22 25  1  0
 23 26  1  0
 24 27  1  0
M  END
